System Matpower Format/npcc_ny_lite_s11_dlr_pf_solution.m
function mpc = npcc_ny_lite_s11_dlr_pf_solution
%NPCC_NY_LITE_S11_DLR_PF_SOLUTION

%% MATPOWER Case Format : Version 2
mpc.version = '2';

%%-----  Power Flow Data  -----%%
%% system MVA base
mpc.baseMVA = 100;

%% bus data
%	bus_i	type	Pd	Qd	Gs	Bs	area	Vm	Va	baseKV	zone	Vmax	Vmin
mpc.bus = [
	37	2	0	0	0	0	2	0.982645015	18.3035278	345	70	1.1	0.9;
	38	2	0	0	0	0	2	1.00304345	23.0618178	345	70	1.1	0.9;
	39	2	458.73926	0	0	0	2	0.950780775	15.5412286	345	71	1.1	0.9;
	40	1	0	0	0	0	2	1.01088751	20.3310329	230	70	1.1	0.9;
	41	2	1763.06079	0	0	0	2	1.06573591	17.4856336	115	70	1.1	0.9;
	42	1	445.802514	0	0	0	2	1.09998974	22.066064	115	70	1.1	0.9;
	43	1	0	0	0	0	2	1.02910908	23.1754804	345	69	1.1	0.9;
	44	1	0	0	0	0	2	0.984196391	23.391066	230	69	1.1	0.9;
	45	1	1249.5819	0	0	0	2	0.983341591	20.5522213	115	69	1.1	0.9;
	46	1	14.4961546	0	0	0	2	0.967337744	62.1950922	115	68	1.1	0.9;
	47	1	332.781287	0	0	0	2	1.0999981	74.0251393	230	68	1.1	0.9;
	48	1	0	0	0	0	2	1.00359111	81.9492167	230	68	1.1	0.9;
	49	1	131.095658	0	0	0	2	0.963012373	68.3559203	115	68	1.1	0.9;
	50	1	0	0	0	0	2	1.09500436	25.1972231	345	67	1.1	0.9;
	51	1	1209.77452	0	0	0	2	1.09998728	23.2917326	115	67	1.1	0.9;
	52	1	0	0	0	0	2	1.09494891	18.2397699	345	66	1.1	0.9;
	53	1	1788.1464	0	0	0	2	1.09924971	14.3020067	115	66	1.1	0.9;
	54	1	19.9961721	0	0	0	2	1.09997496	22.0139018	230	65	1.1	0.9;
	55	1	938.820282	0	0	0	2	1.09993699	19.3304072	230	65	1.1	0.9;
	56	1	198.780107	0	0	0	2	1.07581686	20.5791412	230	65	1.1	0.9;
	57	1	277.367591	0	0	0	2	1.08998505	17.313933	115	65	1.1	0.9;
	58	1	97.0786567	0	0	0	2	1.07332473	16.9591867	230	65	1.1	0.9;
	59	1	814.767297	0	0	0	2	1.07274406	14.4181964	115	65	1.1	0.9;
	60	1	0	0	0	0	2	1.08881679	19.2816797	230	65	1.1	0.9;
	61	1	273.900495	0	0	0	2	1.08940486	18.6146683	115	65	1.1	0.9;
	62	1	0	0	0	0	2	1.07808055	17.1769913	230	65	1.1	0.9;
	63	1	0	0	0	0	2	1.0647848	12.4281438	230	67	1.1	0.9;
	64	1	236.659038	0	0	0	2	1.06162423	8.72417911	115	67	1.1	0.9;
	65	1	150.601206	0	0	0	2	1.07585289	10.7278906	115	67	1.1	0.9;
	66	1	0	0	0	0	2	1.06474293	15.4220946	345	67	1.1	0.9;
	67	1	0	0	0	0	2	1.06994967	14.3649908	230	67	1.1	0.9;
	68	1	349.196203	0	0	0	2	1.07165383	12.5992351	115	67	1.1	0.9;
	69	1	0	0	0	0	2	1.0585535	17.7772109	345	67	1.1	0.9;
	70	1	0	0	0	0	2	1.0777429	16.0360727	230	67	1.1	0.9;
	71	1	613.989531	0	0	0	2	1.07855585	17.3704409	115	67	1.1	0.9;
	72	1	0	0	0	0	2	1.08224973	18.2681571	115	67	1.1	0.9;
	73	3	1146.84815	0	0	1200	3	0.926165132	10.347898	345	71	1.1	0.9;
	74	1	640.25	0	0	0	3	0.911863942	4.90544964	345	73	1.1	0.9;
	75	1	0	0	0	0	3	0.903366866	4.58042886	138	71	1.1	0.9;
	76	2	688.10889	0	0	0	3	0.902815174	4.55098535	345	71	1.1	0.9;
	77	1	0	0	0	0	3	0.908140512	4.16812092	345	73	1.1	0.9;
	78	1	1366.5224	0	0	0	3	0.900006537	0.0810756305	345	72	1.1	0.9;
	79	1	4603.60669	0	0	0	3	0.90032797	5.33835354	22	74	1.1	0.9;
	80	1	5208.3862	-16.0766497	0	0	3	0.903808276	-5.69986022	138	75	1.1	0.9;
	81	2	1023.02371	0	0	0	3	0.900341882	-1.95990082	345	74	1.1	0.9;
	82	1	4603.6067	0	0	0	3	0.900019858	-3.78094469	22	74	1.1	0.9;
	9001	1	0	0	0	0	3	0.944892719	14.3565525	345	71	1.1	0.9;
	9002	1	0	0	441.236871	-13.0688419	3	0.915493897	6.13377678	345	71	1.1	0.9;
	9003	1	0	-0	0	0	3	0.90004441	2.13988683	345	75	1.1	0.9;
];

%% generator data
%	bus	Pg	Qg	Qmax	Qmin	Vg	mBase	status	Pmax	Pmin	Pc1	Pc2	Qc1min	Qc1max	Qc2min	Qc2max	ramp_agc	ramp_10	ramp_30	ramp_q	apf
mpc.gen = [
	37	723.288484	513.447485	514.05	-431.2	0.982645015	100	1	723.3	253.7	0	0	0	0	0	0	0	0	0	0	0;
	43	650.551885	-87.292	-87.292	-87.292	1.02910908	100	1	869.7	70.1	0	0	0	0	0	0	0	0	0	0	0;
	9003	3257.06864	-934.134	-934.134	-934.134	0.90004441	100	1	3257.1	1440.3	0	0	0	0	0	0	0	0	0	0	0;
	80	1176.97756	508.804141	765.2	-647.5	0.903808276	100	1	1177	120.6	0	0	0	0	0	0	0	0	0	0	0;
	44	844.327151	-137.048	-137.048	-137.048	0.984196391	100	1	1135.5	73.1	0	0	0	0	0	0	0	0	0	0	0;
	72	192.995412	34.4836355	134.4	-106.2	1.08224973	100	1	193	16.6	0	0	0	0	0	0	0	0	0	0	0;
	68	271.694425	5.47433113	192.75	-167.92	1.07165383	100	1	271.7	55.3	0	0	0	0	0	0	0	0	0	0	0;
	79	5831.17538	7.11004044	4183.525	-3513.15	0.90032797	100	1	5831.2	1815.2	0	0	0	0	0	0	0	0	0	0	0;
	65	111.997892	2.52038839	72.8	-61.6	1.07585289	100	1	112	32	0	0	0	0	0	0	0	0	0	0	0;
	56	338.454067	4.87138919	255.25	-220.84	1.07581686	100	1	351.5	142.7	0	0	0	0	0	0	0	0	0	0	0;
	50	3044.5761	2188.11131	2188.425	-1846.05	1.09500436	100	1	3044.6	1919.5	0	0	0	0	0	0	0	0	0	0	0;
	47	70.3932395	315.665356	363.8	-287	1.0999981	100	1	521.4	1.5	0	0	0	0	0	0	0	0	0	0	0;
	57	213.065935	15.1458244	165.975	-154.91	1.08998505	100	1	221.3	104	0	0	0	0	0	0	0	0	0	0	0;
	61	306.871071	-17.586523	230.75	-191.32	1.08940486	100	1	323.1	63	0	0	0	0	0	0	0	0	0	0	0;
	60	163.054408	20.5515136	121.3	-95.3	1.08881679	100	1	173.3	9	0	0	0	0	0	0	0	0	0	0	0;
	42	1546.78636	238.520501	1160.1	-1082.76	1.09998974	100	1	1546.8	981.4	0	0	0	0	0	0	0	0	0	0	0;
	81	1554.78093	-208.093437	1102.75	-898.04	0.900341882	100	1	1554.8	701.7	0	0	0	0	0	0	0	0	0	0	0;
	53	724.994159	107.644348	510.95	-408.7	1.09924971	100	1	725	498.1	0	0	0	0	0	0	0	0	0	0	0;
	71	47.6997189	27.23445	33.4	-26.2	1.07855585	100	1	47.7	42	0	0	0	0	0	0	0	0	0	0	0;
	56	88.5142808	0	0	0	1.07581686	100	1	94.4	0	0	0	0	0	0	0	0	0	0	0	0;
	61	0	4.09820635	66.1	-51.9	1.08940486	100	1	0	0	0	0	0	0	0	0	0	0	0	0	0;
	53	0	25.1696225	50	0	1.09924971	100	1	0	0	0	0	0	0	0	0	0	0	0	0	0;
	51	883.294287	137.373949	618.3	-485.8	1.09998728	100	1	883.3	662	0	0	0	0	0	0	0	0	0	0	0;
	47	0	70.0517414	100	0	1.0999981	100	1	0	0	0	0	0	0	0	0	0	0	0	0	0;
	37	0	149.904388	150	0	0.982645015	100	1	0	0	0	0	0	0	0	0	0	0	0	0	0;
	41	338.793887	254.021411	254.1	-237.16	1.06573591	100	1	338.8	101	0	0	0	0	0	0	0	0	0	0	0;
	39	0	20.8934885	250	0	0.950780775	100	1	0	0	0	0	0	0	0	0	0	0	0	0	0;
	76	723.785692	-175.758491	506.8	-398	0.902815174	100	1	723.8	122	0	0	0	0	0	0	0	0	0	0	0;
	73	2011.97316	-1221.89081	1384.9	-1222.2	0.926165132	100	1	2012	666	0	0	0	0	0	0	0	0	0	0	0;
	73	0	0.00355787613	30	0	0.926165132	100	1	0	0	0	0	0	0	0	0	0	0	0	0	0;
	75	59.6986074	6.65856798	41.8	-32.8	0.903366866	100	1	59.7	7	0	0	0	0	0	0	0	0	0	0	0;
	81	0	189.660389	550	0	0.900341882	100	1	0	0	0	0	0	0	0	0	0	0	0	0	0;
	82	1247.48277	190.927097	873.3	-686.1	0.900019858	100	1	1247.5	495.5	0	0	0	0	0	0	0	0	0	0	0;
	9003	0	954.222	954.222	954.222	0.90004441	100	1	0	0	0	0	0	0	0	0	0	0	0	0	0;
	48	14.1124952	74.5928026	74.6	-58.6	1.00359111	100	1	106.5	0	0	0	0	0	0	0	0	0	0	0	0;
	39	1264.78985	-726.37079	946.4	-878.92	0.950780775	100	1	1264.8	856	0	0	0	0	0	0	0	0	0	0	0;
	76	0	24.562501	100	0	0.902815174	100	1	0	0	0	0	0	0	0	0	0	0	0	0	0;
	38	999.978235	103.677653	700	-550	1.00304345	100	1	1000	4	0	0	0	0	0	0	0	0	0	0	0;
	43	0	-721.356	-721.356	-721.356	1.02910908	100	1	0	0	0	0	0	0	0	0	0	0	0	0	0;
	54	1639.0339	-21.2168866	1242.9	-976.2	1.09997496	100	1	1775.1	15	0	0	0	0	0	0	0	0	0	0	0;
	55	830.430892	-6.51964965	626	-491.6	1.09993699	100	1	894	10	0	0	0	0	0	0	0	0	0	0	0;
	48	1450.00002	0	0	0	1.00359111	100	1	1450.001	1449.999	0	0	0	0	0	0	0	0	0	0	0;
	37	-234.943953	0	0	0	0.982645015	100	1	-234.943	-234.945	0	0	0	0	0	0	0	0	0	0	0;
	73	-352.415952	0	0	0	0.926165132	100	1	-352.415	-352.417	0	0	0	0	0	0	0	0	0	0	0;
	54	-386.039953	0	0	0	1.09997496	100	1	-386.039	-386.041	0	0	0	0	0	0	0	0	0	0	0;
	66	-75.5229512	0	0	0	1.06474293	100	1	-75.522	-75.524	0	0	0	0	0	0	0	0	0	0	0;
	67	-32.3669509	0	0	0	1.06994967	100	1	-32.366	-32.368	0	0	0	0	0	0	0	0	0	0	0;
	75	-53.9449519	0	0	0	0.903366866	100	1	-53.944	-53.946	0	0	0	0	0	0	0	0	0	0	0;
	81	-53.9449508	0	0	0	0.900341882	100	1	-53.944	-53.946	0	0	0	0	0	0	0	0	0	0	0;
];

%% branch data
%	fbus	tbus	r	x	b	rateA	rateB	rateC	ratio	angle	status	angmin	angmax	Pf	Qf	Pt	Qt
mpc.branch = [
	37	38	0.0016	0.0493662685	0.25	2500	0	0	0	0	1	-360	360	-166.5389	-40.3945	167.0118	30.3383;
	37	39	8e-05	0.00159134742	0.72	2500	0	0	0	0	1	-360	360	2924.3373	1854.0368	-2914.2964	-1721.6087;
	37	40	0.0009	0.0315	0.06	2500	0	0	0	0	1	-360	360	-113.9353	-85.7700	114.1203	86.2828;
	37	43	0.00013	0.00404288264	1.965	2500	0	0	0	0	1	-360	360	-2155.5186	-1064.5205	2163.0399	1099.5013;
	38	69	0.0043	0.0485	0.79	2500	0	0	0	0	1	-360	360	190.7816	-162.1521	-188.5855	102.9195;
	39	73	0.00019	0.00393535917	0.435	2500	0	0	0	0	1	-360	360	2053.7703	567.7498	-2044.1797	-407.4237;
	39	73	0.00019	0.00393535917	0.435	2500	0	0	0	0	1	-360	360	2053.7703	567.7498	-2044.1797	-407.4237;
	40	44	0.0008	0.0113974883	0.6	2500	0	0	0	0	1	-360	360	-446.2966	249.8496	448.4718	-278.5746;
	41	42	0.0018	0.0089	0.07	2500	0	0	0	0	1	-360	360	-1082.0746	-153.2351	1100.9838	238.5205;
	41	45	0.0776	0.2241	0.13	2500	0	0	0	0	1	-360	360	-10.0160	35.9389	11.3668	-45.7059;
	43	44	0	0.011	0	2500	0	0	0	0	1	-360	360	-34.6455	420.2475	34.6455	-401.7794;
	43	50	0.00025	0.00576325823	0.6	2500	0	0	0	0	1	-360	360	-738.9213	-1164.1984	743.2373	1195.9536;
	43	50	0.00025	0.00576325823	0.6	2500	0	0	0	0	1	-360	360	-738.9213	-1164.1984	743.2373	1195.9536;
	44	45	0	0.00440846246	0	2500	0	0	0	0	1	-360	360	1087.2773	46.0248	-1087.2773	7.8743;
	44	48	0.015	0.105	0.79	2500	0	0	0	0	1	-360	360	-726.0675	497.2813	852.1171	307.0202;
	45	46	0.1235	0.3548	0.16	2500	0	0	0	0	1	-360	360	-136.4863	111.9574	178.5762	-6.2598;
	45	51	0.0605	0.1896	0.08	2500	0	0	0	0	1	-360	360	-42.0788	-50.2859	44.5347	49.2748;
	45	71	0.1751	0.5575	0.12	2500	0	0	0	0	1	-360	360	4.8937	-23.8398	-4.2611	13.0723;
	46	47	0.0632	0.121	0.05	2500	0	0	0	0	1	-360	360	-177.4990	2.9936	198.7973	32.4189;
	46	49	0.164	0.578	0.06	2500	0	0	0	0	1	-360	360	-15.5734	3.2662	16.0631	-7.1297;
	47	48	0	0.033	0	2500	0	0	0	0	1	-360	360	-461.1854	353.2982	461.1854	-261.2493;
	50	51	0	0.00445147185	0	2500	0	0	0	0	1	-360	360	899.7129	-107.6110	-899.7129	138.0934;
	50	52	0.002	0.022	1.28	2500	0	0	0	0	1	-360	360	658.3886	-96.1848	-651.1518	22.3201;
	51	53	0.0844	0.2161	0.22	2500	0	0	0	0	1	-360	360	78.3167	-36.6485	-73.6584	21.9741;
	51	72	0.0051	0.0232	0.3	2500	0	0	0	0	1	-360	360	450.3813	-13.3458	-441.8306	16.5248;
	52	53	0.00014	0.00834382162	0	2500	0	0	0	0	1	-360	360	989.9728	-38.9947	-988.8266	107.3067;
	53	55	0.03	0.107	0.3	789.941803	0	0	0	0	1	-360	360	-90.8791	10.9978	93.1401	-39.2065;
	53	65	0.035	0.08	0.05	2500	0	0	0	0	1	-360	360	90.2119	-7.4646	-87.8489	6.9511;
	54	56	0.01	0.008	0.07	789.941803	0	0	0	0	1	-360	360	308.8315	-53.4702	-300.7484	51.6511;
	54	62	0.008	0.069	0.13	789.941803	0	0	0	0	1	-360	360	147.6864	16.0362	-146.2065	-18.6913;
	55	57	0.0074	0.04	0.02	789.941803	0	0	0	0	1	-360	360	107.2022	8.1800	-106.4939	-6.7493;
	55	59	0.016	0.0817	0.04	789.941803	0	0	0	0	1	-360	360	127.0074	14.6221	-124.8357	-8.2544;
	56	58	0.002	0.015	0.11	2500	0	0	0	0	1	-360	360	481.9014	-37.3862	-477.8717	54.9067;
	57	59	0.014	0.068	0.03	2500	0	0	0	0	1	-360	360	89.2275	9.6791	-88.2739	-8.5553;
	58	60	0.0035	0.0344	0.27	2500	0	0	0	0	1	-360	360	-140.8464	-46.7687	141.4787	21.4264;
	58	62	0.002	0.018	0.03	2500	0	0	0	0	1	-360	360	-27.2467	-27.0127	27.2707	23.7572;
	59	61	0.068	0.143	0.06	2500	0	0	0	0	1	-360	360	-52.7715	11.3344	54.5463	-14.6149;
	62	63	0.0129	0.0803	0.15	2500	0	0	0	0	1	-360	360	118.9358	-5.0659	-117.3643	-2.3718;
	63	64	0	0.046	0	2500	0	0	0	0	1	-360	360	158.7510	12.4491	-158.7510	-2.1611;
	63	67	0.012	0.093	0.18	2500	0	0	0	0	1	-360	360	-41.3867	-10.0772	41.5680	-9.0248;
	64	65	0.035	0.08	0.05	2500	0	0	0	0	1	-360	360	-48.5116	0.3973	49.2456	-4.4307;
	64	68	0.0988	0.231	0.13	2500	0	0	0	0	1	-360	360	-29.3965	1.7638	30.2264	-14.6140;
	66	67	0	0.0231	0	2500	0	0	0	0	1	-360	360	90.9843	-23.1600	-90.9843	24.9560;
	66	69	0.0018	0.0274	0.27	2500	0	0	0	0	1	-360	360	-166.5073	23.1600	166.9710	-46.5334;
	67	68	0	0.049	0	2500	0	0	0	0	1	-360	360	72.1043	-2.6100	-72.1043	4.8382;
	67	70	0.007	0.0619	0.12	2500	0	0	0	0	1	-360	360	-55.0549	-13.3213	55.2428	1.1448;
	68	71	0.1203	0.2048	0.07	2500	0	0	0	0	1	-360	360	-35.6239	15.2501	37.3423	-20.4159;
	69	71	0	0.0375	0	2500	0	0	0	0	1	-360	360	21.6146	-56.3861	-21.6146	57.6065;
	70	71	0	0.049	0	2500	0	0	0	0	1	-360	360	-55.2428	-1.1448	55.2428	2.4327;
	71	72	0.00053	0.00290313381	0.15	2500	0	0	0	0	1	-360	360	-632.9991	-25.4612	634.8260	17.9588;
	73	74	0.00022	0.0042149202	0.51	2500	0	0	0	0	1	-360	360	1916.3071	282.6776	-1906.6508	-140.7525;
	73	74	0.00022	0.0042149202	0.51	2500	0	0	0	0	1	-360	360	1916.3071	282.6776	-1906.6508	-140.7525;
	74	77	0.0003	0.0043	0.08	2500	0	0	0	0	1	-360	360	252.2152	59.6318	-251.9713	-62.7620;
	74	78	0.0005	0.0045	0.32	2500	0	0	0	0	1	-360	360	1548.5565	119.5205	-1534.0304	-15.0502;
	74	78	0.0005	0.0045	0.32	2500	0	0	0	0	1	-360	360	1548.5565	119.5205	-1534.0304	-15.0502;
	76	77	0.003	0.0068	1.37	2500	0	0	0	0	1	-360	360	41.4304	-144.5444	-41.0775	33.0183;
	78	79	0.0003	0.0153	0	2500	0	0	0	0	1	-360	360	-484.6842	29.8919	485.5575	14.6498;
	78	80	0.00135	0.0125157324	0.75	2500	0	0	0	0	1	-360	360	647.7228	-94.5263	-640.6619	98.9793;
	78	81	0.0005	0.0276	0	2500	0	0	0	0	1	-360	360	104.5401	-1.1249	-104.4726	4.8491;
	78	82	5e-05	0.00662344603	0	2500	0	0	0	0	1	-360	360	823.8759	21.3714	-823.4567	34.1690;
	40	41	0	0.0161	0	2500	0	0	1	0	1	-360	360	332.1763	-336.1325	-332.1763	371.3176;
	49	48	0.0156	0.1536	0	2500	0	0	1	0	1	-360	360	-147.1587	7.1297	150.8101	28.8219;
	54	52	0.002	0.0233	0	789.941803	0	0	1	0	1	-360	360	340.7407	5.6899	-338.8210	16.6746;
	54	55	0	0.013	0	2500	0	0	1	0	1	-360	360	435.7391	10.5273	-435.7391	9.8847;
	56	57	0	0.142	0	2500	0	0	1	0	1	-360	360	47.0353	-9.3935	-47.0353	12.2160;
	58	59	0	0.0093	0	2500	0	0	1	0	1	-360	360	548.8862	18.8747	-548.8862	5.4753;
	60	61	0	0.064	0	2500	0	0	1	0	1	-360	360	21.5757	-0.8749	-21.5757	1.1266;
	75	76	0.0001	0.0074	0	2500	0	0	1	0	1	-360	360	5.7537	6.6586	-5.7536	-6.6515;
	38	39	0.00131	0.01997	0.51614	1216	2454	1804	0	0	1	-360	360	642.1849	235.4915	-635.9251	-189.3587;
	73	9002	0.00081	0.01237	0.31971	1216	2454	1804	0	0	1	-360	360	507.9614	51.4554	-505.4848	-40.7434;
	9002	74	0.00037	0.00563	0.14565	1216	2454	1804	0	0	1	-360	360	320.5781	35.2621	-320.1168	-40.4028;
	74	78	0.0009	0.015	0	5000	5000	5000	0	0	1	-360	360	463.9572	63.6284	-461.5834	-24.0663;
	77	78	0.0012	0.02	0	5000	5000	5000	0	0	1	-360	360	293.0489	29.7437	-291.7864	-8.7033;
	78	81	0.00072	0.012	0	5000	5000	5000	0	0	1	-360	360	239.7322	-12.6153	-239.2199	21.1530;
	78	79	0.0006	0.01	0	5000	5000	5000	0	0	1	-360	360	-737.9353	75.4702	742.0111	-7.5398;
	78	82	6e-05	0.00215046949	0	5000	5000	5000	0	0	1	-360	360	2537.4367	14.1828	-2532.6673	156.7581;
	78	9003	0.00012	0.00430093898	0	5000	5000	5000	0	0	1	-360	360	-675.7798	30.2202	676.4577	-5.9234;
	9003	80	0.00012	0.00430093898	0	5000	5000	5000	0	0	1	-360	360	2580.6109	26.0114	-2570.7449	327.5987;
	81	80	0.00018	0.00645140847	0	5000	5000	5000	0	0	1	-360	360	821.5048	-44.4351	-820.0018	98.3028;
	39	9001	0.00021	0.00752664322	0	5000	5000	5000	0	0	1	-360	360	248.7315	69.9906	-248.5764	-64.4316;
	9001	73	0.0015	0.025	0	5000	5000	5000	0	0	1	-360	360	248.5764	64.4316	-247.4685	-45.9673;
	73	9002	0.00081	0.01237	0.31972	1216	2454	1804	0	0	1	-360	360	507.9614	51.4550	-505.4848	-40.7439;
	9002	74	0.00037	0.00563	0.14542	1216	2454	1804	0	0	1	-360	360	320.5781	35.2718	-320.1168	-40.3932;
];

%%-----  OPF Data  -----%%
%% generator cost data
%	1	startup	shutdown	n	x1	y1	...	xn	yn
%	2	startup	shutdown	n	c(n-1)	...	c0
mpc.gencost = [
	2	0	0	2	0	0;
	2	0	0	2	0	0;
	2	0	0	2	0	0;
	2	0	0	2	0	0;
	2	0	0	2	0	0;
	2	0	0	2	0	0;
	2	0	0	2	0	0;
	2	0	0	2	0	0;
	2	0	0	2	0	0;
	2	0	0	2	0	0;
	2	0	0	2	0	0;
	2	0	0	2	0	0;
	2	0	0	2	0	0;
	2	0	0	2	0	0;
	2	0	0	2	0	0;
	2	0	0	2	0	0;
	2	0	0	2	0	0;
	2	0	0	2	0	0;
	2	0	0	2	0	0;
	2	0	0	2	0	0;
	2	0	0	2	0	0;
	2	0	0	2	0	0;
	2	0	0	2	0	0;
	2	0	0	2	0	0;
	2	0	0	2	0	0;
	2	0	0	2	0	0;
	2	0	0	2	0	0;
	2	0	0	2	0	0;
	2	0	0	2	0	0;
	2	0	0	2	0	0;
	2	0	0	2	0	0;
	2	0	0	2	0	0;
	2	0	0	2	0	0;
	2	0	0	2	0	0;
	2	0	0	2	0	0;
	2	0	0	2	0	0;
	2	0	0	2	0	0;
	2	0	0	2	0	0;
	2	0	0	2	0	0;
	2	0	0	2	0	0;
	2	0	0	2	0	0;
	2	0	0	2	0	0;
	2	0	0	2	0	0;
	2	0	0	2	0	0;
	2	0	0	2	0	0;
	2	0	0	2	0	0;
	2	0	0	2	0	0;
	2	0	0	2	0	0;
	2	0	0	2	0	0;
];

%% generator unit type (see GENTYPES)
mpc.gentype = {
	'AG';
	'AG';
	'AG';
	'AG';
	'AG';
	'AG';
	'AG';
	'AG';
	'AG';
	'AG';
	'AG';
	'AG';
	'AG';
	'AG';
	'AG';
	'AG';
	'AG';
	'AG';
	'AG';
	'AG';
	'AG';
	'AG';
	'AG';
	'AG';
	'AG';
	'AG';
	'AG';
	'AG';
	'AG';
	'AG';
	'AG';
	'AG';
	'AG';
	'AG';
	'AG';
	'AG';
	'AG';
	'AG';
	'AG';
	'AG';
	'AG';
	'EX';
	'EX';
	'EX';
	'EX';
	'EX';
	'EX';
	'EX';
	'EX';
};

%% generator fuel type (see GENFUELS)
mpc.genfuel = {
	'aggregate_pv_generator';
	'aggregate_pv_generator';
	'aggregate_pv_generator';
	'aggregate_pv_generator';
	'aggregate_pv_generator';
	'aggregate_pv_generator';
	'aggregate_pv_generator';
	'aggregate_pv_generator';
	'aggregate_pv_generator';
	'aggregate_pv_generator';
	'aggregate_pv_generator';
	'aggregate_pv_generator';
	'aggregate_pv_generator';
	'aggregate_pv_generator';
	'aggregate_pv_generator';
	'aggregate_pv_generator';
	'aggregate_pv_generator';
	'aggregate_pv_generator';
	'aggregate_pv_generator';
	'aggregate_pv_generator_p_injection';
	'aggregate_pv_generator_remote_q_control';
	'controllable_q_device';
	'aggregate_pv_generator';
	'controllable_q_device';
	'controllable_q_device';
	'aggregate_pv_generator';
	'controllable_q_device';
	'aggregate_pv_generator';
	'aggregate_pv_generator';
	'controllable_q_device';
	'aggregate_pv_generator';
	'controllable_q_device';
	'aggregate_pv_generator';
	'controllable_q_device';
	'aggregate_pv_generator';
	'aggregate_pv_generator';
	'controllable_q_device';
	'aggregate_pv_generator';
	'reference_boundary_equivalent';
	'aggregate_pv_generator';
	'aggregate_pv_generator';
	'external_schedule';
	'external_schedule';
	'external_schedule';
	'external_schedule';
	'external_schedule';
	'external_schedule';
	'external_schedule';
	'external_schedule';
};

%% bus names
mpc.bus_name = {
	'NEW SEATHED ';
	'GILBOA      ';
	'LEEDS       ';
	'NEW SEATHED ';
	'ROTTERDAM   ';
	'ALBANY      ';
	'EDIC        ';
	'PORTER      ';
	'PORTER      ';
	'COLTON      ';
	'MOSES W     ';
	'MOSES E     ';
	'PLATTSBURGH ';
	'CLAY        ';
	'CLAY        ';
	'ROCHESTER   ';
	'ROCHESTER   ';
	'NIAGARA W   ';
	'NIAGARA E   ';
	'HUNTLEY     ';
	'HUNTLEY     ';
	'GARDENVILLE ';
	'GARDENVILLE ';
	'DUNKIRK     ';
	'DUNKIRK     ';
	'STOLLE RD   ';
	'MEYER       ';
	'MEYER       ';
	'GESONIDGE   ';
	'WATERCURE   ';
	'WRHL        ';
	'HILLSIDE    ';
	'BINGHAMTON  ';
	'BINGHAMTON  ';
	'BINGHAMTON  ';
	'LAPEER      ';
	'PLEASANT VLY';
	'MILLWOOD    ';
	'RAMAPO      ';
	'RAMAPO      ';
	'BUCHANAN    ';
	'CE UG       ';
	'RAV A-3     ';
	'NORTHPORT   ';
	'GOETHALS    ';
	'AK-3        ';
	'KNICKERBOCKER';
	'WOOD STREET';
	'EAST GARDEN CITY';
};
